AMOSTRA/MOL/Cargas.dss
! ==========================================================
! CARGAS — mes 01
! BT: UCBT_tab agregada por transformador (kW = ENE/730 h)
! MT: UCMT_tab individual no PAC do consumidor
! fator de escala aplicado: 1
! 0 cargas de MT descartadas por PAC ausente da rede.
! ==========================================================
New Load.BT_2486600_1 Bus1=2486600-9361092.1.4 Phases=1 Model=8 zipv=(0.5,0,0.5,1,0,0,0) kv=0.1270 pf=0.92 kW=21.800950 Daily=RES-Tipo5
New Load.BT_2486600_2 Bus1=2486600-9361092.2.4 Phases=1 Model=8 zipv=(0.5,0,0.5,1,0,0,0) kv=0.1270 pf=0.92 kW=21.800950 Daily=RES-Tipo5
New Load.BT_2486600_3 Bus1=2486600-9361092.3.4 Phases=1 Model=8 zipv=(0.5,0,0.5,1,0,0,0) kv=0.1270 pf=0.92 kW=21.800950 Daily=RES-Tipo5
New Load.BT_2486559_1 Bus1=2486559-9362339.1.4 Phases=1 Model=8 zipv=(0.5,0,0.5,1,0,0,0) kv=0.1270 pf=0.92 kW=1.593753 Daily=RES-Tipo1
New Load.BT_2486559_2 Bus1=2486559-9362339.2.4 Phases=1 Model=8 zipv=(0.5,0,0.5,1,0,0,0) kv=0.1270 pf=0.92 kW=1.593753 Daily=RES-Tipo1
New Load.BT_2486559_3 Bus1=2486559-9362339.3.4 Phases=1 Model=8 zipv=(0.5,0,0.5,1,0,0,0) kv=0.1270 pf=0.92 kW=1.593753 Daily=RES-Tipo1
New Load.BT_2486671_1 Bus1=2486671-9362678.1.4 Phases=1 Model=8 zipv=(0.5,0,0.5,1,0,0,0) kv=0.1270 pf=0.92 kW=2.828196 Daily=RES-Tipo3
New Load.BT_2486671_2 Bus1=2486671-9362678.2.4 Phases=1 Model=8 zipv=(0.5,0,0.5,1,0,0,0) kv=0.1270 pf=0.92 kW=2.828196 Daily=RES-Tipo3
New Load.BT_2486671_3 Bus1=2486671-9362678.3.4 Phases=1 Model=8 zipv=(0.5,0,0.5,1,0,0,0) kv=0.1270 pf=0.92 kW=2.828196 Daily=RES-Tipo3
New Load.BT_2486737_1 Bus1=2486737-9362152.1.4 Phases=1 Model=8 zipv=(0.5,0,0.5,1,0,0,0) kv=0.1270 pf=0.92 kW=5.329064 Daily=RES-Tipo1
New Load.BT_2486737_2 Bus1=2486737-9362152.2.4 Phases=1 Model=8 zipv=(0.5,0,0.5,1,0,0,0) kv=0.1270 pf=0.92 kW=5.329064 Daily=RES-Tipo1
New Load.BT_2486737_3 Bus1=2486737-9362152.3.4 Phases=1 Model=8 zipv=(0.5,0,0.5,1,0,0,0) kv=0.1270 pf=0.92 kW=5.329064 Daily=RES-Tipo1
New Load.BT_2486568_1 Bus1=2486568-9362666.1.4 Phases=1 Model=8 zipv=(0.5,0,0.5,1,0,0,0) kv=0.1270 pf=0.92 kW=9.373384 Daily=RES-Tipo8
New Load.BT_2486568_2 Bus1=2486568-9362666.2.4 Phases=1 Model=8 zipv=(0.5,0,0.5,1,0,0,0) kv=0.1270 pf=0.92 kW=9.373384 Daily=RES-Tipo8
New Load.BT_2486568_3 Bus1=2486568-9362666.3.4 Phases=1 Model=8 zipv=(0.5,0,0.5,1,0,0,0) kv=0.1270 pf=0.92 kW=9.373384 Daily=RES-Tipo8
New Load.BT_2486720_1 Bus1=2486720-9362805.1.4 Phases=1 Model=8 zipv=(0.5,0,0.5,1,0,0,0) kv=0.1270 pf=0.92 kW=5.606379 Daily=RES-Tipo8
New Load.BT_2486720_2 Bus1=2486720-9362805.2.4 Phases=1 Model=8 zipv=(0.5,0,0.5,1,0,0,0) kv=0.1270 pf=0.92 kW=5.606379 Daily=RES-Tipo8
New Load.BT_2486720_3 Bus1=2486720-9362805.3.4 Phases=1 Model=8 zipv=(0.5,0,0.5,1,0,0,0) kv=0.1270 pf=0.92 kW=5.606379 Daily=RES-Tipo8
New Load.BT_2486738_1 Bus1=2486738-9361526.1.4 Phases=1 Model=8 zipv=(0.5,0,0.5,1,0,0,0) kv=0.1270 pf=0.92 kW=7.514616 Daily=RES-Tipo6
New Load.BT_2486738_2 Bus1=2486738-9361526.2.4 Phases=1 Model=8 zipv=(0.5,0,0.5,1,0,0,0) kv=0.1270 pf=0.92 kW=7.514616 Daily=RES-Tipo6
New Load.BT_2486738_3 Bus1=2486738-9361526.3.4 Phases=1 Model=8 zipv=(0.5,0,0.5,1,0,0,0) kv=0.1270 pf=0.92 kW=7.514616 Daily=RES-Tipo6
New Load.BT_2486657_1 Bus1=2486657-9361404.1.4 Phases=1 Model=8 zipv=(0.5,0,0.5,1,0,0,0) kv=0.1270 pf=0.92 kW=9.977995 Daily=RES-Tipo8
New Load.BT_2486657_2 Bus1=2486657-9361404.2.4 Phases=1 Model=8 zipv=(0.5,0,0.5,1,0,0,0) kv=0.1270 pf=0.92 kW=9.977995 Daily=RES-Tipo8
New Load.BT_2486657_3 Bus1=2486657-9361404.3.4 Phases=1 Model=8 zipv=(0.5,0,0.5,1,0,0,0) kv=0.1270 pf=0.92 kW=9.977995 Daily=RES-Tipo8
New Load.BT_2486666_1 Bus1=2486666-9362323.1.4 Phases=1 Model=8 zipv=(0.5,0,0.5,1,0,0,0) kv=0.1270 pf=0.92 kW=4.354557 Daily=RES-Tipo6
New Load.BT_2486666_2 Bus1=2486666-9362323.2.4 Phases=1 Model=8 zipv=(0.5,0,0.5,1,0,0,0) kv=0.1270 pf=0.92 kW=4.354557 Daily=RES-Tipo6
New Load.BT_2486666_3 Bus1=2486666-9362323.3.4 Phases=1 Model=8 zipv=(0.5,0,0.5,1,0,0,0) kv=0.1270 pf=0.92 kW=4.354557 Daily=RES-Tipo6
New Load.BT_2486577_1 Bus1=2486577-9363441.1.4 Phases=1 Model=8 zipv=(0.5,0,0.5,1,0,0,0) kv=0.1270 pf=0.92 kW=15.975059 Daily=RES-Tipo6
New Load.BT_2486577_2 Bus1=2486577-9363441.2.4 Phases=1 Model=8 zipv=(0.5,0,0.5,1,0,0,0) kv=0.1270 pf=0.92 kW=15.975059 Daily=RES-Tipo6
New Load.BT_2486577_3 Bus1=2486577-9363441.3.4 Phases=1 Model=8 zipv=(0.5,0,0.5,1,0,0,0) kv=0.1270 pf=0.92 kW=15.975059 Daily=RES-Tipo6
New Load.BT_2486634_1 Bus1=2486634-9362407.1.4 Phases=1 Model=8 zipv=(0.5,0,0.5,1,0,0,0) kv=0.1270 pf=0.92 kW=9.044991 Daily=RES-Tipo8
New Load.BT_2486634_2 Bus1=2486634-9362407.2.4 Phases=1 Model=8 zipv=(0.5,0,0.5,1,0,0,0) kv=0.1270 pf=0.92 kW=9.044991 Daily=RES-Tipo8
New Load.BT_2486634_3 Bus1=2486634-9362407.3.4 Phases=1 Model=8 zipv=(0.5,0,0.5,1,0,0,0) kv=0.1270 pf=0.92 kW=9.044991 Daily=RES-Tipo8
New Load.BT_2486612_1 Bus1=2486612-9361175.1.4 Phases=1 Model=8 zipv=(0.5,0,0.5,1,0,0,0) kv=0.1270 pf=0.92 kW=10.557776 Daily=RES-Tipo6
New Load.BT_2486612_2 Bus1=2486612-9361175.2.4 Phases=1 Model=8 zipv=(0.5,0,0.5,1,0,0,0) kv=0.1270 pf=0.92 kW=10.557776 Daily=RES-Tipo6
New Load.BT_2486612_3 Bus1=2486612-9361175.3.4 Phases=1 Model=8 zipv=(0.5,0,0.5,1,0,0,0) kv=0.1270 pf=0.92 kW=10.557776 Daily=RES-Tipo6
New Load.BT_2486608_1 Bus1=2486608-9362409.1.4 Phases=1 Model=8 zipv=(0.5,0,0.5,1,0,0,0) kv=0.1270 pf=0.92 kW=13.187493 Daily=RES-Tipo8
New Load.BT_2486608_2 Bus1=2486608-9362409.2.4 Phases=1 Model=8 zipv=(0.5,0,0.5,1,0,0,0) kv=0.1270 pf=0.92 kW=13.187493 Daily=RES-Tipo8
New Load.BT_2486608_3 Bus1=2486608-9362409.3.4 Phases=1 Model=8 zipv=(0.5,0,0.5,1,0,0,0) kv=0.1270 pf=0.92 kW=13.187493 Daily=RES-Tipo8
New Load.BT_2486565_1 Bus1=2486565-9362802.1.4 Phases=1 Model=8 zipv=(0.5,0,0.5,1,0,0,0) kv=0.1270 pf=0.92 kW=20.515662 Daily=RES-Tipo6
New Load.BT_2486565_2 Bus1=2486565-9362802.2.4 Phases=1 Model=8 zipv=(0.5,0,0.5,1,0,0,0) kv=0.1270 pf=0.92 kW=20.515662 Daily=RES-Tipo6
New Load.BT_2486565_3 Bus1=2486565-9362802.3.4 Phases=1 Model=8 zipv=(0.5,0,0.5,1,0,0,0) kv=0.1270 pf=0.92 kW=20.515662 Daily=RES-Tipo6
New Load.BT_2486725_1 Bus1=2486725-9362158.1.4 Phases=1 Model=8 zipv=(0.5,0,0.5,1,0,0,0) kv=0.1270 pf=0.92 kW=7.004014 Daily=RES-Tipo1
New Load.BT_2486725_2 Bus1=2486725-9362158.2.4 Phases=1 Model=8 zipv=(0.5,0,0.5,1,0,0,0) kv=0.1270 pf=0.92 kW=7.004014 Daily=RES-Tipo1
New Load.BT_2486725_3 Bus1=2486725-9362158.3.4 Phases=1 Model=8 zipv=(0.5,0,0.5,1,0,0,0) kv=0.1270 pf=0.92 kW=7.004014 Daily=RES-Tipo1
New Load.BT_2486583_1 Bus1=2486583-9361917.1.4 Phases=1 Model=8 zipv=(0.5,0,0.5,1,0,0,0) kv=0.1270 pf=0.92 kW=6.943986 Daily=RES-Tipo6
New Load.BT_2486583_2 Bus1=2486583-9361917.2.4 Phases=1 Model=8 zipv=(0.5,0,0.5,1,0,0,0) kv=0.1270 pf=0.92 kW=6.943986 Daily=RES-Tipo6
New Load.BT_2486583_3 Bus1=2486583-9361917.3.4 Phases=1 Model=8 zipv=(0.5,0,0.5,1,0,0,0) kv=0.1270 pf=0.92 kW=6.943986 Daily=RES-Tipo6
New Load.BT_2486745_1 Bus1=2486745-9363326.1.4 Phases=1 Model=8 zipv=(0.5,0,0.5,1,0,0,0) kv=0.1270 pf=0.92 kW=9.980146 Daily=RES-Tipo4
New Load.BT_2486745_2 Bus1=2486745-9363326.2.4 Phases=1 Model=8 zipv=(0.5,0,0.5,1,0,0,0) kv=0.1270 pf=0.92 kW=9.980146 Daily=RES-Tipo4
New Load.BT_2486745_3 Bus1=2486745-9363326.3.4 Phases=1 Model=8 zipv=(0.5,0,0.5,1,0,0,0) kv=0.1270 pf=0.92 kW=9.980146 Daily=RES-Tipo4
New Load.BT_2486556_1 Bus1=2486556-9362415.1.4 Phases=1 Model=8 zipv=(0.5,0,0.5,1,0,0,0) kv=0.1270 pf=0.92 kW=7.017763 Daily=RES-Tipo8
New Load.BT_2486556_2 Bus1=2486556-9362415.2.4 Phases=1 Model=8 zipv=(0.5,0,0.5,1,0,0,0) kv=0.1270 pf=0.92 kW=7.017763 Daily=RES-Tipo8
New Load.BT_2486556_3 Bus1=2486556-9362415.3.4 Phases=1 Model=8 zipv=(0.5,0,0.5,1,0,0,0) kv=0.1270 pf=0.92 kW=7.017763 Daily=RES-Tipo8
New Load.BT_2486744_1 Bus1=2486744-9362673.1.4 Phases=1 Model=8 zipv=(0.5,0,0.5,1,0,0,0) kv=0.1270 pf=0.92 kW=7.347708 Daily=RES-Tipo5
New Load.BT_2486744_2 Bus1=2486744-9362673.2.4 Phases=1 Model=8 zipv=(0.5,0,0.5,1,0,0,0) kv=0.1270 pf=0.92 kW=7.347708 Daily=RES-Tipo5
New Load.BT_2486744_3 Bus1=2486744-9362673.3.4 Phases=1 Model=8 zipv=(0.5,0,0.5,1,0,0,0) kv=0.1270 pf=0.92 kW=7.347708 Daily=RES-Tipo5
New Load.BT_2486719_1 Bus1=2486719-9363423.1.4 Phases=1 Model=8 zipv=(0.5,0,0.5,1,0,0,0) kv=0.1270 pf=0.92 kW=3.201813 Daily=RES-Tipo1
New Load.BT_2486719_2 Bus1=2486719-9363423.2.4 Phases=1 Model=8 zipv=(0.5,0,0.5,1,0,0,0) kv=0.1270 pf=0.92 kW=3.201813 Daily=RES-Tipo1
New Load.BT_2486719_3 Bus1=2486719-9363423.3.4 Phases=1 Model=8 zipv=(0.5,0,0.5,1,0,0,0) kv=0.1270 pf=0.92 kW=3.201813 Daily=RES-Tipo1
New Load.BT_2486687_1 Bus1=2486687-9363453.1.4 Phases=1 Model=8 zipv=(0.5,0,0.5,1,0,0,0) kv=0.1270 pf=0.92 kW=4.758151 Daily=RES-Tipo1
New Load.BT_2486687_2 Bus1=2486687-9363453.2.4 Phases=1 Model=8 zipv=(0.5,0,0.5,1,0,0,0) kv=0.1270 pf=0.92 kW=4.758151 Daily=RES-Tipo1
New Load.BT_2486687_3 Bus1=2486687-9363453.3.4 Phases=1 Model=8 zipv=(0.5,0,0.5,1,0,0,0) kv=0.1270 pf=0.92 kW=4.758151 Daily=RES-Tipo1
New Load.BT_2486584_1 Bus1=2486584-9361524.1.4 Phases=1 Model=8 zipv=(0.5,0,0.5,1,0,0,0) kv=0.1270 pf=0.92 kW=5.402612 Daily=RES-Tipo8
New Load.BT_2486584_2 Bus1=2486584-9361524.2.4 Phases=1 Model=8 zipv=(0.5,0,0.5,1,0,0,0) kv=0.1270 pf=0.92 kW=5.402612 Daily=RES-Tipo8
New Load.BT_2486584_3 Bus1=2486584-9361524.3.4 Phases=1 Model=8 zipv=(0.5,0,0.5,1,0,0,0) kv=0.1270 pf=0.92 kW=5.402612 Daily=RES-Tipo8
New Load.BT_2486736_1 Bus1=2486736-9362664.1.4 Phases=1 Model=8 zipv=(0.5,0,0.5,1,0,0,0) kv=0.1270 pf=0.92 kW=10.424571 Daily=RES-Tipo6
New Load.BT_2486736_2 Bus1=2486736-9362664.2.4 Phases=1 Model=8 zipv=(0.5,0,0.5,1,0,0,0) kv=0.1270 pf=0.92 kW=10.424571 Daily=RES-Tipo6
New Load.BT_2486736_3 Bus1=2486736-9362664.3.4 Phases=1 Model=8 zipv=(0.5,0,0.5,1,0,0,0) kv=0.1270 pf=0.92 kW=10.424571 Daily=RES-Tipo6
New Load.BT_2486665_1 Bus1=2486665-9361137.1.4 Phases=1 Model=8 zipv=(0.5,0,0.5,1,0,0,0) kv=0.1270 pf=0.92 kW=8.677420 Daily=RES-Tipo6
New Load.BT_2486665_2 Bus1=2486665-9361137.2.4 Phases=1 Model=8 zipv=(0.5,0,0.5,1,0,0,0) kv=0.1270 pf=0.92 kW=8.677420 Daily=RES-Tipo6
New Load.BT_2486665_3 Bus1=2486665-9361137.3.4 Phases=1 Model=8 zipv=(0.5,0,0.5,1,0,0,0) kv=0.1270 pf=0.92 kW=8.677420 Daily=RES-Tipo6
New Load.BT_2486585_1 Bus1=2486585-9362156.1.4 Phases=1 Model=8 zipv=(0.5,0,0.5,1,0,0,0) kv=0.1270 pf=0.92 kW=8.364913 Daily=RES-Tipo6
New Load.BT_2486585_2 Bus1=2486585-9362156.2.4 Phases=1 Model=8 zipv=(0.5,0,0.5,1,0,0,0) kv=0.1270 pf=0.92 kW=8.364913 Daily=RES-Tipo6
New Load.BT_2486585_3 Bus1=2486585-9362156.3.4 Phases=1 Model=8 zipv=(0.5,0,0.5,1,0,0,0) kv=0.1270 pf=0.92 kW=8.364913 Daily=RES-Tipo6
New Load.BT_2486610_1 Bus1=2486610-9361322.1.4 Phases=1 Model=8 zipv=(0.5,0,0.5,1,0,0,0) kv=0.1270 pf=0.92 kW=3.685598 Daily=RES-Tipo8
New Load.BT_2486610_2 Bus1=2486610-9361322.2.4 Phases=1 Model=8 zipv=(0.5,0,0.5,1,0,0,0) kv=0.1270 pf=0.92 kW=3.685598 Daily=RES-Tipo8
New Load.BT_2486610_3 Bus1=2486610-9361322.3.4 Phases=1 Model=8 zipv=(0.5,0,0.5,1,0,0,0) kv=0.1270 pf=0.92 kW=3.685598 Daily=RES-Tipo8
New Load.BT_2486718_1 Bus1=2486718-9362171.1.4 Phases=1 Model=8 zipv=(0.5,0,0.5,1,0,0,0) kv=0.1270 pf=0.92 kW=7.989991 Daily=RES-Tipo1
New Load.BT_2486718_2 Bus1=2486718-9362171.2.4 Phases=1 Model=8 zipv=(0.5,0,0.5,1,0,0,0) kv=0.1270 pf=0.92 kW=7.989991 Daily=RES-Tipo1
New Load.BT_2486718_3 Bus1=2486718-9362171.3.4 Phases=1 Model=8 zipv=(0.5,0,0.5,1,0,0,0) kv=0.1270 pf=0.92 kW=7.989991 Daily=RES-Tipo1
New Load.BT_2486695_1 Bus1=2486695-9361173.1.4 Phases=1 Model=8 zipv=(0.5,0,0.5,1,0,0,0) kv=0.1270 pf=0.92 kW=3.381301 Daily=RES-Tipo6
New Load.BT_2486695_2 Bus1=2486695-9361173.2.4 Phases=1 Model=8 zipv=(0.5,0,0.5,1,0,0,0) kv=0.1270 pf=0.92 kW=3.381301 Daily=RES-Tipo6
New Load.BT_2486695_3 Bus1=2486695-9361173.3.4 Phases=1 Model=8 zipv=(0.5,0,0.5,1,0,0,0) kv=0.1270 pf=0.92 kW=3.381301 Daily=RES-Tipo6
New Load.BT_2486653_1 Bus1=2486653-9361145.1.4 Phases=1 Model=8 zipv=(0.5,0,0.5,1,0,0,0) kv=0.1270 pf=0.92 kW=4.583443 Daily=RES-Tipo1
New Load.BT_2486653_2 Bus1=2486653-9361145.2.4 Phases=1 Model=8 zipv=(0.5,0,0.5,1,0,0,0) kv=0.1270 pf=0.92 kW=4.583443 Daily=RES-Tipo1
New Load.BT_2486653_3 Bus1=2486653-9361145.3.4 Phases=1 Model=8 zipv=(0.5,0,0.5,1,0,0,0) kv=0.1270 pf=0.92 kW=4.583443 Daily=RES-Tipo1
New Load.BT_2486726_1 Bus1=2486726-9361648.1.4 Phases=1 Model=8 zipv=(0.5,0,0.5,1,0,0,0) kv=0.1270 pf=0.92 kW=0.610416 Daily=RES-Tipo6
New Load.BT_2486726_2 Bus1=2486726-9361648.2.4 Phases=1 Model=8 zipv=(0.5,0,0.5,1,0,0,0) kv=0.1270 pf=0.92 kW=0.610416 Daily=RES-Tipo6
New Load.BT_2486726_3 Bus1=2486726-9361648.3.4 Phases=1 Model=8 zipv=(0.5,0,0.5,1,0,0,0) kv=0.1270 pf=0.92 kW=0.610416 Daily=RES-Tipo6
New Load.BT_2486582_1 Bus1=2486582-9361654.1.4 Phases=1 Model=8 zipv=(0.5,0,0.5,1,0,0,0) kv=0.1270 pf=0.92 kW=12.202973 Daily=RES-Tipo6
New Load.BT_2486582_2 Bus1=2486582-9361654.2.4 Phases=1 Model=8 zipv=(0.5,0,0.5,1,0,0,0) kv=0.1270 pf=0.92 kW=12.202973 Daily=RES-Tipo6
New Load.BT_2486582_3 Bus1=2486582-9361654.3.4 Phases=1 Model=8 zipv=(0.5,0,0.5,1,0,0,0) kv=0.1270 pf=0.92 kW=12.202973 Daily=RES-Tipo6
New Load.BT_2486688_1 Bus1=2486688-9363107.1.4 Phases=1 Model=8 zipv=(0.5,0,0.5,1,0,0,0) kv=0.1270 pf=0.92 kW=9.102840 Daily=RES-Tipo6
New Load.BT_2486688_2 Bus1=2486688-9363107.2.4 Phases=1 Model=8 zipv=(0.5,0,0.5,1,0,0,0) kv=0.1270 pf=0.92 kW=9.102840 Daily=RES-Tipo6
New Load.BT_2486688_3 Bus1=2486688-9363107.3.4 Phases=1 Model=8 zipv=(0.5,0,0.5,1,0,0,0) kv=0.1270 pf=0.92 kW=9.102840 Daily=RES-Tipo6
New Load.BT_3128079_1 Bus1=3128079-12523908.1.4 Phases=1 Model=8 zipv=(0.5,0,0.5,1,0,0,0) kv=0.1270 pf=0.92 kW=3.930087 Daily=RES-Tipo6
New Load.BT_3128079_2 Bus1=3128079-12523908.2.4 Phases=1 Model=8 zipv=(0.5,0,0.5,1,0,0,0) kv=0.1270 pf=0.92 kW=3.930087 Daily=RES-Tipo6
New Load.BT_3128079_3 Bus1=3128079-12523908.3.4 Phases=1 Model=8 zipv=(0.5,0,0.5,1,0,0,0) kv=0.1270 pf=0.92 kW=3.930087 Daily=RES-Tipo6
New Load.BT_2869876_1 Bus1=2869876-9361829.1.4 Phases=1 Model=8 zipv=(0.5,0,0.5,1,0,0,0) kv=0.1270 pf=0.92 kW=9.140530 Daily=RES-Tipo8
New Load.BT_2869876_2 Bus1=2869876-9361829.2.4 Phases=1 Model=8 zipv=(0.5,0,0.5,1,0,0,0) kv=0.1270 pf=0.92 kW=9.140530 Daily=RES-Tipo8
New Load.BT_2869876_3 Bus1=2869876-9361829.3.4 Phases=1 Model=8 zipv=(0.5,0,0.5,1,0,0,0) kv=0.1270 pf=0.92 kW=9.140530 Daily=RES-Tipo8
New Load.BT_2486611_1 Bus1=2486611-9362616.1.4 Phases=1 Model=8 zipv=(0.5,0,0.5,1,0,0,0) kv=0.1270 pf=0.92 kW=4.217845 Daily=RES-Tipo1
New Load.BT_2486611_2 Bus1=2486611-9362616.2.4 Phases=1 Model=8 zipv=(0.5,0,0.5,1,0,0,0) kv=0.1270 pf=0.92 kW=4.217845 Daily=RES-Tipo1
New Load.BT_2486611_3 Bus1=2486611-9362616.3.4 Phases=1 Model=8 zipv=(0.5,0,0.5,1,0,0,0) kv=0.1270 pf=0.92 kW=4.217845 Daily=RES-Tipo1
New Load.BT_2486599_1 Bus1=2486599-9361171.1.4 Phases=1 Model=8 zipv=(0.5,0,0.5,1,0,0,0) kv=0.1270 pf=0.92 kW=4.295991 Daily=RES-Tipo3
New Load.BT_2486599_2 Bus1=2486599-9361171.2.4 Phases=1 Model=8 zipv=(0.5,0,0.5,1,0,0,0) kv=0.1270 pf=0.92 kW=4.295991 Daily=RES-Tipo3
New Load.BT_2486599_3 Bus1=2486599-9361171.3.4 Phases=1 Model=8 zipv=(0.5,0,0.5,1,0,0,0) kv=0.1270 pf=0.92 kW=4.295991 Daily=RES-Tipo3
New Load.BT_2486717_1 Bus1=2486717-9362335.1.4 Phases=1 Model=8 zipv=(0.5,0,0.5,1,0,0,0) kv=0.1270 pf=0.92 kW=7.261653 Daily=RES-Tipo1
New Load.BT_2486717_2 Bus1=2486717-9362335.2.4 Phases=1 Model=8 zipv=(0.5,0,0.5,1,0,0,0) kv=0.1270 pf=0.92 kW=7.261653 Daily=RES-Tipo1
New Load.BT_2486717_3 Bus1=2486717-9362335.3.4 Phases=1 Model=8 zipv=(0.5,0,0.5,1,0,0,0) kv=0.1270 pf=0.92 kW=7.261653 Daily=RES-Tipo1
New Load.BT_2486646_1 Bus1=2486646-9363097.1.4 Phases=1 Model=8 zipv=(0.5,0,0.5,1,0,0,0) kv=0.1270 pf=0.92 kW=8.888073 Daily=RES-Tipo8
New Load.BT_2486646_2 Bus1=2486646-9363097.2.4 Phases=1 Model=8 zipv=(0.5,0,0.5,1,0,0,0) kv=0.1270 pf=0.92 kW=8.888073 Daily=RES-Tipo8
New Load.BT_2486646_3 Bus1=2486646-9363097.3.4 Phases=1 Model=8 zipv=(0.5,0,0.5,1,0,0,0) kv=0.1270 pf=0.92 kW=8.888073 Daily=RES-Tipo8
New Load.BT_2487009_1 Bus1=2487009-9364488.1.4 Phases=1 Model=8 zipv=(0.5,0,0.5,1,0,0,0) kv=0.1270 pf=0.92 kW=9.311361 Daily=RES-Tipo8
New Load.BT_2487009_2 Bus1=2487009-9364488.2.4 Phases=1 Model=8 zipv=(0.5,0,0.5,1,0,0,0) kv=0.1270 pf=0.92 kW=9.311361 Daily=RES-Tipo8
New Load.BT_2487009_3 Bus1=2487009-9364488.3.4 Phases=1 Model=8 zipv=(0.5,0,0.5,1,0,0,0) kv=0.1270 pf=0.92 kW=9.311361 Daily=RES-Tipo8
New Load.BT_2486682_1 Bus1=2486682-9363108v.1.4 Phases=1 Model=8 zipv=(0.5,0,0.5,1,0,0,0) kv=0.1270 pf=0.92 kW=0.490607 Daily=SP-Tipo1
New Load.BT_2486682_2 Bus1=2486682-9363108v.2.4 Phases=1 Model=8 zipv=(0.5,0,0.5,1,0,0,0) kv=0.1270 pf=0.92 kW=0.490607 Daily=SP-Tipo1
New Load.BT_2486682_3 Bus1=2486682-9363108v.3.4 Phases=1 Model=8 zipv=(0.5,0,0.5,1,0,0,0) kv=0.1270 pf=0.92 kW=0.490607 Daily=SP-Tipo1
New Load.BT_2486679_1 Bus1=2486679-9362187.1.4 Phases=1 Model=8 zipv=(0.5,0,0.5,1,0,0,0) kv=0.1270 pf=0.92 kW=5.498256 Daily=RES-Tipo1
New Load.BT_2486679_2 Bus1=2486679-9362187.2.4 Phases=1 Model=8 zipv=(0.5,0,0.5,1,0,0,0) kv=0.1270 pf=0.92 kW=5.498256 Daily=RES-Tipo1
New Load.BT_2486679_3 Bus1=2486679-9362187.3.4 Phases=1 Model=8 zipv=(0.5,0,0.5,1,0,0,0) kv=0.1270 pf=0.92 kW=5.498256 Daily=RES-Tipo1
New Load.BT_2486555_1 Bus1=2486555-9363443.1.4 Phases=1 Model=8 zipv=(0.5,0,0.5,1,0,0,0) kv=0.1270 pf=0.92 kW=11.009406 Daily=RES-Tipo8
New Load.BT_2486555_2 Bus1=2486555-9363443.2.4 Phases=1 Model=8 zipv=(0.5,0,0.5,1,0,0,0) kv=0.1270 pf=0.92 kW=11.009406 Daily=RES-Tipo8
New Load.BT_2486555_3 Bus1=2486555-9363443.3.4 Phases=1 Model=8 zipv=(0.5,0,0.5,1,0,0,0) kv=0.1270 pf=0.92 kW=11.009406 Daily=RES-Tipo8
New Load.BT_2486632_1 Bus1=2486632-9363445.1.4 Phases=1 Model=8 zipv=(0.5,0,0.5,1,0,0,0) kv=0.1270 pf=0.92 kW=6.499342 Daily=RES-Tipo1
New Load.BT_2486632_2 Bus1=2486632-9363445.2.4 Phases=1 Model=8 zipv=(0.5,0,0.5,1,0,0,0) kv=0.1270 pf=0.92 kW=6.499342 Daily=RES-Tipo1
New Load.BT_2486632_3 Bus1=2486632-9363445.3.4 Phases=1 Model=8 zipv=(0.5,0,0.5,1,0,0,0) kv=0.1270 pf=0.92 kW=6.499342 Daily=RES-Tipo1
New Load.BT_2486936_1 Bus1=2486936-9363831.1.4 Phases=1 Model=8 zipv=(0.5,0,0.5,1,0,0,0) kv=0.1270 pf=0.92 kW=6.971005 Daily=RES-Tipo8
New Load.BT_2486936_2 Bus1=2486936-9363831.2.4 Phases=1 Model=8 zipv=(0.5,0,0.5,1,0,0,0) kv=0.1270 pf=0.92 kW=6.971005 Daily=RES-Tipo8
New Load.BT_2486936_3 Bus1=2486936-9363831.3.4 Phases=1 Model=8 zipv=(0.5,0,0.5,1,0,0,0) kv=0.1270 pf=0.92 kW=6.971005 Daily=RES-Tipo8
New Load.BT_2486575_1 Bus1=2486575-9361658.1.4 Phases=1 Model=8 zipv=(0.5,0,0.5,1,0,0,0) kv=0.1270 pf=0.92 kW=6.427562 Daily=RES-Tipo8
New Load.BT_2486575_2 Bus1=2486575-9361658.2.4 Phases=1 Model=8 zipv=(0.5,0,0.5,1,0,0,0) kv=0.1270 pf=0.92 kW=6.427562 Daily=RES-Tipo8
New Load.BT_2486575_3 Bus1=2486575-9361658.3.4 Phases=1 Model=8 zipv=(0.5,0,0.5,1,0,0,0) kv=0.1270 pf=0.92 kW=6.427562 Daily=RES-Tipo8
New Load.BT_2486586_1 Bus1=2486586-9362411.1.4 Phases=1 Model=8 zipv=(0.5,0,0.5,1,0,0,0) kv=0.1270 pf=0.92 kW=9.969936 Daily=RES-Tipo8
New Load.BT_2486586_2 Bus1=2486586-9362411.2.4 Phases=1 Model=8 zipv=(0.5,0,0.5,1,0,0,0) kv=0.1270 pf=0.92 kW=9.969936 Daily=RES-Tipo8
New Load.BT_2486586_3 Bus1=2486586-9362411.3.4 Phases=1 Model=8 zipv=(0.5,0,0.5,1,0,0,0) kv=0.1270 pf=0.92 kW=9.969936 Daily=RES-Tipo8
New Load.BT_2486746_1 Bus1=2486746-9362321.1.4 Phases=1 Model=8 zipv=(0.5,0,0.5,1,0,0,0) kv=0.1270 pf=0.92 kW=2.513479 Daily=RES-Tipo8
New Load.BT_2486746_2 Bus1=2486746-9362321.2.4 Phases=1 Model=8 zipv=(0.5,0,0.5,1,0,0,0) kv=0.1270 pf=0.92 kW=2.513479 Daily=RES-Tipo8
New Load.BT_2486746_3 Bus1=2486746-9362321.3.4 Phases=1 Model=8 zipv=(0.5,0,0.5,1,0,0,0) kv=0.1270 pf=0.92 kW=2.513479 Daily=RES-Tipo8
New Load.BT_2486554_1 Bus1=2486554-9362662.1.4 Phases=1 Model=8 zipv=(0.5,0,0.5,1,0,0,0) kv=0.1270 pf=0.92 kW=20.265854 Daily=RES-Tipo8
New Load.BT_2486554_2 Bus1=2486554-9362662.2.4 Phases=1 Model=8 zipv=(0.5,0,0.5,1,0,0,0) kv=0.1270 pf=0.92 kW=20.265854 Daily=RES-Tipo8
New Load.BT_2486554_3 Bus1=2486554-9362662.3.4 Phases=1 Model=8 zipv=(0.5,0,0.5,1,0,0,0) kv=0.1270 pf=0.92 kW=20.265854 Daily=RES-Tipo8
New Load.BT_3007632_1 Bus1=3007632-9362106.1.4 Phases=1 Model=8 zipv=(0.5,0,0.5,1,0,0,0) kv=0.1270 pf=0.92 kW=9.887731 Daily=RES-Tipo6
New Load.BT_3007632_2 Bus1=3007632-9362106.2.4 Phases=1 Model=8 zipv=(0.5,0,0.5,1,0,0,0) kv=0.1270 pf=0.92 kW=9.887731 Daily=RES-Tipo6
New Load.BT_3007632_3 Bus1=3007632-9362106.3.4 Phases=1 Model=8 zipv=(0.5,0,0.5,1,0,0,0) kv=0.1270 pf=0.92 kW=9.887731 Daily=RES-Tipo6
New Load.BT_3123941_1 Bus1=3123941-12501241.1.4 Phases=1 Model=8 zipv=(0.5,0,0.5,1,0,0,0) kv=0.1270 pf=0.92 kW=3.587954 Daily=RES-Tipo6
New Load.BT_3123941_2 Bus1=3123941-12501241.2.4 Phases=1 Model=8 zipv=(0.5,0,0.5,1,0,0,0) kv=0.1270 pf=0.92 kW=3.587954 Daily=RES-Tipo6
New Load.BT_3123941_3 Bus1=3123941-12501241.3.4 Phases=1 Model=8 zipv=(0.5,0,0.5,1,0,0,0) kv=0.1270 pf=0.92 kW=3.587954 Daily=RES-Tipo6
New Load.BT_2486557_1 Bus1=2486557-9362175.1.4 Phases=1 Model=8 zipv=(0.5,0,0.5,1,0,0,0) kv=0.1270 pf=0.92 kW=6.372963 Daily=RES-Tipo1
New Load.BT_2486557_2 Bus1=2486557-9362175.2.4 Phases=1 Model=8 zipv=(0.5,0,0.5,1,0,0,0) kv=0.1270 pf=0.92 kW=6.372963 Daily=RES-Tipo1
New Load.BT_2486557_3 Bus1=2486557-9362175.3.4 Phases=1 Model=8 zipv=(0.5,0,0.5,1,0,0,0) kv=0.1270 pf=0.92 kW=6.372963 Daily=RES-Tipo1
New Load.BT_2486636_1 Bus1=2486636-9361781.1.4 Phases=1 Model=8 zipv=(0.5,0,0.5,1,0,0,0) kv=0.1270 pf=0.92 kW=4.081909 Daily=RES-Tipo9
New Load.BT_2486636_2 Bus1=2486636-9361781.2.4 Phases=1 Model=8 zipv=(0.5,0,0.5,1,0,0,0) kv=0.1270 pf=0.92 kW=4.081909 Daily=RES-Tipo9
New Load.BT_2486636_3 Bus1=2486636-9361781.3.4 Phases=1 Model=8 zipv=(0.5,0,0.5,1,0,0,0) kv=0.1270 pf=0.92 kW=4.081909 Daily=RES-Tipo9
New Load.BT_2486640_1 Bus1=2486640-9361656.1.4 Phases=1 Model=8 zipv=(0.5,0,0.5,1,0,0,0) kv=0.1270 pf=0.92 kW=9.158854 Daily=RES-Tipo8
New Load.BT_2486640_2 Bus1=2486640-9361656.2.4 Phases=1 Model=8 zipv=(0.5,0,0.5,1,0,0,0) kv=0.1270 pf=0.92 kW=9.158854 Daily=RES-Tipo8
New Load.BT_2486640_3 Bus1=2486640-9361656.3.4 Phases=1 Model=8 zipv=(0.5,0,0.5,1,0,0,0) kv=0.1270 pf=0.92 kW=9.158854 Daily=RES-Tipo8
New Load.BT_2486622_1 Bus1=2486622-9361652.1.4 Phases=1 Model=8 zipv=(0.5,0,0.5,1,0,0,0) kv=0.1270 pf=0.92 kW=18.242534 Daily=RES-Tipo6
New Load.BT_2486622_2 Bus1=2486622-9361652.2.4 Phases=1 Model=8 zipv=(0.5,0,0.5,1,0,0,0) kv=0.1270 pf=0.92 kW=18.242534 Daily=RES-Tipo6
New Load.BT_2486622_3 Bus1=2486622-9361652.3.4 Phases=1 Model=8 zipv=(0.5,0,0.5,1,0,0,0) kv=0.1270 pf=0.92 kW=18.242534 Daily=RES-Tipo6
New Load.BT_2486689_1 Bus1=2486689-9362120.1.4 Phases=1 Model=8 zipv=(0.5,0,0.5,1,0,0,0) kv=0.1270 pf=0.92 kW=14.227457 Daily=RES-Tipo6
New Load.BT_2486689_2 Bus1=2486689-9362120.2.4 Phases=1 Model=8 zipv=(0.5,0,0.5,1,0,0,0) kv=0.1270 pf=0.92 kW=14.227457 Daily=RES-Tipo6
New Load.BT_2486689_3 Bus1=2486689-9362120.3.4 Phases=1 Model=8 zipv=(0.5,0,0.5,1,0,0,0) kv=0.1270 pf=0.92 kW=14.227457 Daily=RES-Tipo6
New Load.BT_2486628_1 Bus1=2486628-9361094.1.4 Phases=1 Model=8 zipv=(0.5,0,0.5,1,0,0,0) kv=0.1270 pf=0.92 kW=9.373237 Daily=RES-Tipo6
New Load.BT_2486628_2 Bus1=2486628-9361094.2.4 Phases=1 Model=8 zipv=(0.5,0,0.5,1,0,0,0) kv=0.1270 pf=0.92 kW=9.373237 Daily=RES-Tipo6
New Load.BT_2486628_3 Bus1=2486628-9361094.3.4 Phases=1 Model=8 zipv=(0.5,0,0.5,1,0,0,0) kv=0.1270 pf=0.92 kW=9.373237 Daily=RES-Tipo6
New Load.BT_2486733_1 Bus1=2486733-9361535.1.4 Phases=1 Model=8 zipv=(0.5,0,0.5,1,0,0,0) kv=0.1270 pf=0.92 kW=5.196164 Daily=RES-Tipo1
New Load.BT_2486733_2 Bus1=2486733-9361535.2.4 Phases=1 Model=8 zipv=(0.5,0,0.5,1,0,0,0) kv=0.1270 pf=0.92 kW=5.196164 Daily=RES-Tipo1
New Load.BT_2486733_3 Bus1=2486733-9361535.3.4 Phases=1 Model=8 zipv=(0.5,0,0.5,1,0,0,0) kv=0.1270 pf=0.92 kW=5.196164 Daily=RES-Tipo1
New Load.BT_3007703_1 Bus1=3007703-9362325.1.4 Phases=1 Model=8 zipv=(0.5,0,0.5,1,0,0,0) kv=0.1270 pf=0.92 kW=4.733078 Daily=RES-Tipo8
New Load.BT_3007703_2 Bus1=3007703-9362325.2.4 Phases=1 Model=8 zipv=(0.5,0,0.5,1,0,0,0) kv=0.1270 pf=0.92 kW=4.733078 Daily=RES-Tipo8
New Load.BT_3007703_3 Bus1=3007703-9362325.3.4 Phases=1 Model=8 zipv=(0.5,0,0.5,1,0,0,0) kv=0.1270 pf=0.92 kW=4.733078 Daily=RES-Tipo8
New Load.BT_2486637_1 Bus1=2486637-9362413.1.4 Phases=1 Model=8 zipv=(0.5,0,0.5,1,0,0,0) kv=0.1270 pf=0.92 kW=4.703607 Daily=RES-Tipo8
New Load.BT_2486637_2 Bus1=2486637-9362413.2.4 Phases=1 Model=8 zipv=(0.5,0,0.5,1,0,0,0) kv=0.1270 pf=0.92 kW=4.703607 Daily=RES-Tipo8
New Load.BT_2486637_3 Bus1=2486637-9362413.3.4 Phases=1 Model=8 zipv=(0.5,0,0.5,1,0,0,0) kv=0.1270 pf=0.92 kW=4.703607 Daily=RES-Tipo8
New Load.BT_2486589_1 Bus1=2486589-9363219.1.4 Phases=1 Model=8 zipv=(0.5,0,0.5,1,0,0,0) kv=0.1270 pf=0.92 kW=5.452315 Daily=RES-Tipo8
New Load.BT_2486589_2 Bus1=2486589-9363219.2.4 Phases=1 Model=8 zipv=(0.5,0,0.5,1,0,0,0) kv=0.1270 pf=0.92 kW=5.452315 Daily=RES-Tipo8
New Load.BT_2486589_3 Bus1=2486589-9363219.3.4 Phases=1 Model=8 zipv=(0.5,0,0.5,1,0,0,0) kv=0.1270 pf=0.92 kW=5.452315 Daily=RES-Tipo8
New Load.BT_2486675_1 Bus1=2486675-9363320.1.4 Phases=1 Model=8 zipv=(0.5,0,0.5,1,0,0,0) kv=0.1270 pf=0.92 kW=16.676384 Daily=RES-Tipo6
New Load.BT_2486675_2 Bus1=2486675-9363320.2.4 Phases=1 Model=8 zipv=(0.5,0,0.5,1,0,0,0) kv=0.1270 pf=0.92 kW=16.676384 Daily=RES-Tipo6
New Load.BT_2486675_3 Bus1=2486675-9363320.3.4 Phases=1 Model=8 zipv=(0.5,0,0.5,1,0,0,0) kv=0.1270 pf=0.92 kW=16.676384 Daily=RES-Tipo6
New Load.BT_2639827_1 Bus1=2639827-10152207v.1.4 Phases=1 Model=8 zipv=(0.5,0,0.5,1,0,0,0) kv=0.1100 pf=0.92 kW=0.125055 Daily=RES-Tipo1
New Load.BT_2639827_2 Bus1=2639827-10152207v.2.4 Phases=1 Model=8 zipv=(0.5,0,0.5,1,0,0,0) kv=0.1100 pf=0.92 kW=0.125055 Daily=RES-Tipo1
New Load.BT_2639802_1 Bus1=2639802-10149668.1.4 Phases=1 Model=8 zipv=(0.5,0,0.5,1,0,0,0) kv=0.1100 pf=0.92 kW=0.235616 Daily=RES-Tipo8
New Load.BT_2639802_2 Bus1=2639802-10149668.2.4 Phases=1 Model=8 zipv=(0.5,0,0.5,1,0,0,0) kv=0.1100 pf=0.92 kW=0.235616 Daily=RES-Tipo8
New Load.BT_2435492_1 Bus1=2435492-9053071.1.4 Phases=1 Model=8 zipv=(0.5,0,0.5,1,0,0,0) kv=0.1100 pf=0.92 kW=1.818432 Daily=RES-Tipo8
New Load.BT_2435492_2 Bus1=2435492-9053071.2.4 Phases=1 Model=8 zipv=(0.5,0,0.5,1,0,0,0) kv=0.1100 pf=0.92 kW=1.818432 Daily=RES-Tipo8
New Load.BT_2435483_1 Bus1=2435483-9041215.1.4 Phases=1 Model=8 zipv=(0.5,0,0.5,1,0,0,0) kv=0.1100 pf=0.92 kW=0.590459 Daily=RES-Tipo5
New Load.BT_2435483_2 Bus1=2435483-9041215.2.4 Phases=1 Model=8 zipv=(0.5,0,0.5,1,0,0,0) kv=0.1100 pf=0.92 kW=0.590459 Daily=RES-Tipo5
New Load.BT_2435576_1 Bus1=2435576-9047686.1.4 Phases=1 Model=8 zipv=(0.5,0,0.5,1,0,0,0) kv=0.1100 pf=0.92 kW=1.503521 Daily=RUR-Tipo2
New Load.BT_2435576_2 Bus1=2435576-9047686.2.4 Phases=1 Model=8 zipv=(0.5,0,0.5,1,0,0,0) kv=0.1100 pf=0.92 kW=1.503521 Daily=RUR-Tipo2
New Load.BT_2434482_1 Bus1=2434482-9053430.1.4 Phases=1 Model=8 zipv=(0.5,0,0.5,1,0,0,0) kv=0.1100 pf=0.92 kW=1.275521 Daily=RES-Tipo1
New Load.BT_2434482_2 Bus1=2434482-9053430.2.4 Phases=1 Model=8 zipv=(0.5,0,0.5,1,0,0,0) kv=0.1100 pf=0.92 kW=1.275521 Daily=RES-Tipo1
New Load.BT_2435542_1 Bus1=2435542-9049296.1.4 Phases=1 Model=8 zipv=(0.5,0,0.5,1,0,0,0) kv=0.1100 pf=0.92 kW=1.038315 Daily=RES-Tipo1
New Load.BT_2435542_2 Bus1=2435542-9049296.2.4 Phases=1 Model=8 zipv=(0.5,0,0.5,1,0,0,0) kv=0.1100 pf=0.92 kW=1.038315 Daily=RES-Tipo1
New Load.BT_2640002_1 Bus1=2640002-10147197.1.4 Phases=1 Model=8 zipv=(0.5,0,0.5,1,0,0,0) kv=0.1100 pf=0.92 kW=2.319021 Daily=RES-Tipo8
New Load.BT_2640002_2 Bus1=2640002-10147197.2.4 Phases=1 Model=8 zipv=(0.5,0,0.5,1,0,0,0) kv=0.1100 pf=0.92 kW=2.319021 Daily=RES-Tipo8
New Load.BT_2640452_1 Bus1=2640452-10151234.1.4 Phases=1 Model=8 zipv=(0.5,0,0.5,1,0,0,0) kv=0.1100 pf=0.92 kW=0.750788 Daily=RES-Tipo8
...

! --- cargas de media tensao (UCMT_tab) ---
New Load.MT_25529-11638662_0 Bus1=25529-11638662.1.2.3 Phases=3 Conn=wye Model=8 zipv=(0.5,0,0.5,1,0,0,0) kv=13.8000 pf=0.92 kW=24.3028 Daily=MT-Tipo3
New Load.MT_25529-12335180_1 Bus1=25529-12335180.1.2.3 Phases=3 Conn=wye Model=8 zipv=(0.5,0,0.5,1,0,0,0) kv=13.8000 pf=0.92 kW=49.9723 Daily=MT-Tipo8
New Load.MT_25527-9365086_2 Bus1=25527-9365086.1.2.3 Phases=3 Conn=wye Model=8 zipv=(0.5,0,0.5,1,0,0,0) kv=13.8000 pf=0.92 kW=92.3159 Daily=MT-Tipo2
New Load.MT_25526-11294893_3 Bus1=25526-11294893.1.2.3 Phases=3 Conn=wye Model=8 zipv=(0.5,0,0.5,1,0,0,0) kv=13.8000 pf=0.92 kW=5.5482 Daily=MT-Tipo1
New Load.MT_25526-13084364_4 Bus1=25526-13084364.1.2.3 Phases=3 Conn=wye Model=8 zipv=(0.5,0,0.5,1,0,0,0) kv=13.8000 pf=0.92 kW=1.1275 Daily=MT-Tipo2
New Load.MT_25526-11820223_5 Bus1=25526-11820223.1.2.3 Phases=3 Conn=wye Model=8 zipv=(0.5,0,0.5,1,0,0,0) kv=13.8000 pf=0.92 kW=1.5476 Daily=MT-Tipo1
New Load.MT_25526-9363451_6 Bus1=25526-9363451.1.2.3 Phases=3 Conn=wye Model=8 zipv=(0.5,0,0.5,1,0,0,0) kv=13.8000 pf=0.92 kW=5.0781 Daily=MT-Tipo1
New Load.MT_25526-9362163_7 Bus1=25526-9362163.1.2.3 Phases=3 Conn=wye Model=8 zipv=(0.5,0,0.5,1,0,0,0) kv=13.8000 pf=0.92 kW=6.5801 Daily=MT-Tipo1
New Load.MT_25526-9362670_8 Bus1=25526-9362670.1.2.3 Phases=3 Conn=wye Model=8 zipv=(0.5,0,0.5,1,0,0,0) kv=13.8000 pf=0.92 kW=1.7685 Daily=MT-Tipo2
New Load.MT_25527-9365309_9 Bus1=25527-9365309.1.2.3 Phases=3 Conn=wye Model=8 zipv=(0.5,0,0.5,1,0,0,0) kv=13.8000 pf=0.92 kW=27.4420 Daily=MT-Tipo10
New Load.MT_25526-9363108_10 Bus1=25526-9363108.1.2.3 Phases=3 Conn=wye Model=8 zipv=(0.5,0,0.5,1,0,0,0) kv=13.8000 pf=0.92 kW=2.1765 Daily=MT-Tipo1
New Load.MT_25526-12584125_11 Bus1=25526-12584125.1.2.3 Phases=3 Conn=wye Model=8 zipv=(0.5,0,0.5,1,0,0,0) kv=13.8000 pf=0.92 kW=1.4466 Daily=MT-Tipo1
New Load.MT_25526-11763286_12 Bus1=25526-11763286.1.2.3 Phases=3 Conn=wye Model=8 zipv=(0.5,0,0.5,1,0,0,0) kv=13.8000 pf=0.92 kW=4.6332 Daily=MT-Tipo9
New Load.MT_25526-9362674_13 Bus1=25526-9362674.1.2.3 Phases=3 Conn=wye Model=8 zipv=(0.5,0,0.5,1,0,0,0) kv=13.8000 pf=0.92 kW=1.7182 Daily=MT-Tipo2
New Load.MT_25526-11850235_14 Bus1=25526-11850235.1.2.3 Phases=3 Conn=wye Model=8 zipv=(0.5,0,0.5,1,0,0,0) kv=13.8000 pf=0.92 kW=2.7695 Daily=MT-Tipo3
New Load.MT_25526-12123882_15 Bus1=25526-12123882.1.2.3 Phases=3 Conn=wye Model=8 zipv=(0.5,0,0.5,1,0,0,0) kv=13.8000 pf=0.92 kW=4.2215 Daily=MT-Tipo1
New Load.MT_25527-12162106_16 Bus1=25527-12162106.1.2.3 Phases=3 Conn=wye Model=8 zipv=(0.5,0,0.5,1,0,0,0) kv=13.8000 pf=0.92 kW=2.1874 Daily=MT-Tipo1
New Load.MT_25526-12548706_17 Bus1=25526-12548706.1.2.3 Phases=3 Conn=wye Model=8 zipv=(0.5,0,0.5,1,0,0,0) kv=13.8000 pf=0.92 kW=1.0392 Daily=MT-Tipo1
New Load.MT_25529-11822130_18 Bus1=25529-11822130.1.2.3 Phases=3 Conn=wye Model=8 zipv=(0.5,0,0.5,1,0,0,0) kv=13.8000 pf=0.92 kW=8.2948 Daily=MT-Tipo3
New Load.MT_25526-9362667_19 Bus1=25526-9362667.1.2.3 Phases=3 Conn=wye Model=8 zipv=(0.5,0,0.5,1,0,0,0) kv=13.8000 pf=0.92 kW=9.1061 Daily=MT-Tipo2
New Load.MT_25527-12957169_20 Bus1=25527-12957169.1.2.3 Phases=3 Conn=wye Model=8 zipv=(0.5,0,0.5,1,0,0,0) kv=13.8000 pf=0.92 kW=5.7747 Daily=MT-Tipo1
New Load.MT_25527-9365087_21 Bus1=25527-9365087.1.2.3 Phases=3 Conn=wye Model=8 zipv=(0.5,0,0.5,1,0,0,0) kv=13.8000 pf=0.92 kW=8.4178 Daily=MT-Tipo1
New Load.MT_25526-9361988_22 Bus1=25526-9361988.1.2.3 Phases=3 Conn=wye Model=8 zipv=(0.5,0,0.5,1,0,0,0) kv=13.8000 pf=0.92 kW=3.0158 Daily=MT-Tipo9
New Load.MT_25527-12554025_23 Bus1=25527-12554025.1.2.3 Phases=3 Conn=wye Model=8 zipv=(0.5,0,0.5,1,0,0,0) kv=13.8000 pf=0.92 kW=8.9098 Daily=MT-Tipo2
New Load.MT_25526-12172040_24 Bus1=25526-12172040.1.2.3 Phases=3 Conn=wye Model=8 zipv=(0.5,0,0.5,1,0,0,0) kv=13.8000 pf=0.92 kW=19.2107 Daily=MT-Tipo3
New Load.MT_25527-9365300_25 Bus1=25527-9365300.1.2.3 Phases=3 Conn=wye Model=8 zipv=(0.5,0,0.5,1,0,0,0) kv=13.8000 pf=0.92 kW=8.7167 Daily=MT-Tipo1
New Load.MT_25526-9363105_26 Bus1=25526-9363105.1.2.3 Phases=3 Conn=wye Model=8 zipv=(0.5,0,0.5,1,0,0,0) kv=13.8000 pf=0.92 kW=6.8709 Daily=MT-Tipo2
New Load.MT_25526-9361987_35 Bus1=25526-9361987.1.2.3 Phases=3 Conn=wye Model=8 zipv=(0.5,0,0.5,1,0,0,0) kv=13.8000 pf=0.92 kW=7.0728 Daily=MT-Tipo1
New Load.MT_25527-11565766_36 Bus1=25527-11565766.1.2.3 Phases=3 Conn=wye Model=8 zipv=(0.5,0,0.5,1,0,0,0) kv=13.8000 pf=0.92 kW=2.8613 Daily=MT-Tipo3
New Load.MT_25526-9361091_37 Bus1=25526-9361091.1.2.3 Phases=3 Conn=wye Model=8 zipv=(0.5,0,0.5,1,0,0,0) kv=13.8000 pf=0.92 kW=8.1961 Daily=MT-Tipo1
New Load.MT_25527-9362328_38 Bus1=25527-9362328.1.2.3 Phases=3 Conn=wye Model=8 zipv=(0.5,0,0.5,1,0,0,0) kv=13.8000 pf=0.92 kW=17.5187 Daily=MT-Tipo1
New Load.MT_25527-9365311_39 Bus1=25527-9365311.1.2.3 Phases=3 Conn=wye Model=8 zipv=(0.5,0,0.5,1,0,0,0) kv=13.8000 pf=0.92 kW=7.3866 Daily=MT-Tipo1
